Version 4
SHEET 1 1780 764
WIRE 208 -96 176 -96
WIRE 320 -96 288 -96
WIRE 176 -48 176 -96
WIRE 320 -48 320 -96
WIRE -608 -32 -768 -32
WIRE -512 -32 -608 -32
WIRE -448 -32 -512 -32
WIRE -384 -32 -448 -32
WIRE -320 -32 -384 -32
WIRE -256 -32 -320 -32
WIRE -192 -32 -256 -32
WIRE -48 -32 -192 -32
WIRE 16 -32 -48 -32
WIRE -768 -16 -768 -32
WIRE -512 -16 -512 -32
WIRE -448 -16 -448 -32
WIRE -384 -16 -384 -32
WIRE -320 -16 -320 -32
WIRE -256 -16 -256 -32
WIRE -192 -16 -192 -32
WIRE -48 -16 -48 -32
WIRE -608 0 -608 -32
WIRE 16 16 16 -32
WIRE 64 16 16 16
WIRE 544 16 448 16
WIRE 624 16 544 16
WIRE 752 16 624 16
WIRE 848 16 752 16
WIRE 944 16 848 16
WIRE 1040 16 944 16
WIRE 1136 16 1040 16
WIRE 1232 16 1136 16
WIRE 1424 16 1232 16
WIRE 1584 16 1424 16
WIRE 1600 16 1584 16
WIRE 544 32 544 16
WIRE 624 32 624 16
WIRE 752 32 752 16
WIRE 848 32 848 16
WIRE 944 32 944 16
WIRE 1040 32 1040 16
WIRE 1136 32 1136 16
WIRE 1232 32 1232 16
WIRE 1424 32 1424 16
WIRE 1584 32 1584 16
WIRE -512 64 -512 48
WIRE -448 64 -448 48
WIRE -448 64 -512 64
WIRE -384 64 -384 48
WIRE -384 64 -448 64
WIRE -320 64 -320 48
WIRE -256 64 -256 48
WIRE -256 64 -320 64
WIRE -192 64 -192 48
WIRE -192 64 -256 64
WIRE -768 80 -768 64
WIRE -608 80 -608 64
WIRE -512 80 -512 64
WIRE -320 80 -320 64
WIRE -48 80 -48 64
WIRE -48 80 -96 80
WIRE 48 80 -48 80
WIRE 64 80 48 80
WIRE 464 80 448 80
WIRE -48 96 -48 80
WIRE -96 112 -96 80
WIRE -96 112 -160 112
WIRE 752 112 752 96
WIRE 848 112 848 96
WIRE 848 112 752 112
WIRE 944 112 944 96
WIRE 944 112 848 112
WIRE 1040 112 1040 96
WIRE 1136 112 1136 96
WIRE 1136 112 1040 112
WIRE 1232 112 1232 96
WIRE 1232 112 1136 112
WIRE -160 128 -160 112
WIRE 544 128 544 96
WIRE 624 128 624 96
WIRE 752 128 752 112
WIRE 1040 128 1040 112
WIRE 1424 128 1424 112
WIRE 480 144 448 144
WIRE 512 144 480 144
WIRE 512 160 512 144
WIRE 1584 160 1584 112
WIRE -48 176 -48 160
WIRE -32 208 -80 208
WIRE 64 208 -32 208
WIRE 480 208 480 144
WIRE 480 208 448 208
WIRE -160 224 -160 208
WIRE -32 240 -32 208
WIRE 1536 240 1328 240
WIRE 48 272 48 80
WIRE 64 272 48 272
WIRE 512 272 512 240
WIRE 512 272 448 272
WIRE 512 288 512 272
WIRE 1584 288 1584 256
WIRE -32 336 -32 320
WIRE 64 336 -32 336
WIRE 576 336 448 336
WIRE 1328 352 1328 240
WIRE -80 368 -80 208
WIRE 608 400 448 400
WIRE 704 400 688 400
WIRE 1328 448 1328 432
WIRE -80 464 -80 448
WIRE 64 464 -80 464
WIRE 496 464 448 464
WIRE -80 480 -80 464
WIRE 496 480 496 464
WIRE 176 544 176 528
WIRE 320 544 320 528
WIRE 496 560 496 544
WIRE -80 576 -80 560
FLAG 464 80 0
FLAG 704 400 0
FLAG 512 288 0
FLAG 320 544 0
FLAG 176 544 0
FLAG -768 80 0
FLAG 496 560 0
FLAG -768 -32 IN
FLAG 1584 16 OUT
FLAG -512 80 0
FLAG -608 80 0
FLAG 624 128 0
FLAG -48 176 0
FLAG 752 128 0
FLAG -80 576 0
FLAG -160 224 0
FLAG 1328 448 0
FLAG 1584 288 0
FLAG 1424 128 0
FLAG 544 128 0
FLAG 1040 128 0
FLAG -320 80 0
SYMBOL ind 192 -80 R270
WINDOW 0 32 56 VTop 2
WINDOW 3 5 56 VBottom 2
SYMATTR InstName L1
SYMATTR Value 4.7µ
SYMATTR SpiceLine Rser=4m
SYMBOL res 496 144 R0
SYMATTR InstName R1
SYMATTR Value 7.5m
SYMBOL res 704 384 R90
WINDOW 0 0 56 VBottom 2
WINDOW 3 32 56 VTop 2
SYMATTR InstName R2
SYMATTR Value 7.13k
SYMBOL voltage -768 -32 R0
WINDOW 123 0 0 Left 2
WINDOW 39 24 124 Left 2
SYMATTR SpiceLine Rser=10m
SYMATTR InstName V1
SYMATTR Value 16.8
SYMBOL cap 480 480 R0
SYMATTR InstName C1
SYMATTR Value .005µ
SYMBOL res -48 336 M180
WINDOW 0 36 76 Left 2
WINDOW 3 36 40 Left 2
SYMATTR InstName R3
SYMATTR Value 100K
SYMBOL cap -528 -16 R0
SYMATTR InstName C3
SYMATTR Value 8µ
SYMATTR SpiceLine Rser=0
SYMBOL cap 608 32 R0
WINDOW 3 35 39 Left 2
WINDOW 40 32 71 Left 2
SYMATTR Value 220µ
SYMATTR InstName C4
SYMATTR SpiceLine Rser=21m
SYMBOL res -96 352 R0
SYMATTR InstName R4
SYMATTR Value 4.7k
SYMBOL res -96 464 R0
SYMATTR InstName R5
SYMATTR Value 2.7k
SYMBOL res -64 -32 R0
SYMATTR InstName R6
SYMATTR Value 51K
SYMBOL zener -64 160 M180
WINDOW 0 25 66 Left 2
WINDOW 3 24 0 Left 2
SYMATTR InstName D1
SYMATTR Value 1N750
SYMBOL cap 736 32 R0
WINDOW 3 39 35 Left 2
WINDOW 40 32 67 Left 2
SYMATTR Value 8µ
SYMATTR InstName C5
SYMATTR SpiceLine Rser=0
SYMBOL PowerProducts\\LTM4607 256 240 R0
SYMATTR InstName U1
SYMBOL res 1568 16 R0
SYMATTR InstName Rfault
SYMATTR Value 0.1
SYMBOL res -176 112 R0
SYMATTR InstName R7
SYMATTR Value 8.45k
SYMBOL cap 832 32 R0
WINDOW 3 39 35 Left 2
WINDOW 40 32 67 Left 2
SYMATTR Value 8µ
SYMATTR InstName C7
SYMATTR SpiceLine Rser=0
SYMBOL cap 928 32 R0
WINDOW 3 39 35 Left 2
WINDOW 40 32 67 Left 2
SYMATTR Value 8µ
SYMATTR InstName C8
SYMATTR SpiceLine Rser=0
SYMBOL cap -464 -16 R0
SYMATTR InstName C9
SYMATTR Value 8µ
SYMATTR SpiceLine Rser=0
SYMBOL cap -400 -16 R0
SYMATTR InstName C10
SYMATTR Value 8µ
SYMATTR SpiceLine Rser=0
SYMBOL voltage 1328 336 R0
WINDOW 123 0 0 Left 2
WINDOW 39 24 124 Left 2
SYMATTR SpiceLine Rser=10m
SYMATTR InstName V2
SYMATTR Value PULSE(0 10 15m 0.01u 0.01u 2m 60m)
SYMBOL cap -624 0 R0
WINDOW 3 35 39 Left 2
WINDOW 40 32 71 Left 2
SYMATTR Value 180µ
SYMATTR InstName C2
SYMATTR SpiceLine Rser=19m
SYMBOL nmos 1536 160 R0
SYMATTR InstName M1
SYMATTR Value IPT004N03L
SYMBOL res 1408 16 R0
SYMATTR InstName Rload
SYMATTR Value 1.2
SYMBOL cap 528 32 R0
WINDOW 3 35 39 Left 2
WINDOW 40 32 71 Left 2
SYMATTR Value 220µ
SYMATTR InstName C6
SYMATTR SpiceLine Rser=21m
SYMBOL cap 1024 32 R0
WINDOW 3 39 35 Left 2
WINDOW 40 32 67 Left 2
SYMATTR Value 8µ
SYMATTR InstName C11
SYMATTR SpiceLine Rser=0
SYMBOL cap 1120 32 R0
WINDOW 3 39 35 Left 2
WINDOW 40 32 67 Left 2
SYMATTR Value 8µ
SYMATTR InstName C12
SYMATTR SpiceLine Rser=0
SYMBOL cap 1216 32 R0
WINDOW 3 39 35 Left 2
WINDOW 40 32 67 Left 2
SYMATTR Value 8µ
SYMATTR InstName C13
SYMATTR SpiceLine Rser=0
SYMBOL cap -336 -16 R0
SYMATTR InstName C14
SYMATTR Value 8µ
SYMATTR SpiceLine Rser=0
SYMBOL cap -272 -16 R0
SYMATTR InstName C15
SYMATTR Value 8µ
SYMATTR SpiceLine Rser=0
SYMBOL cap -208 -16 R0
SYMATTR InstName C16
SYMATTR Value 8µ
SYMATTR SpiceLine Rser=0
TEXT 656 520 Left 2 !.tran 100m startup
TEXT 504 -24 Left 2 ;Capacitors derated from 10uF to account for capacitance loss at large applied voltage
TEXT 1336 224 Left 2 ;Simulated fault:
