Version 4
SHEET 1 1160 1024
WIRE 208 -96 176 -96
WIRE 320 -96 288 -96
WIRE 176 -48 176 -96
WIRE 320 -48 320 -96
WIRE -400 16 -592 16
WIRE -304 16 -400 16
WIRE -192 16 -304 16
WIRE 32 16 -192 16
WIRE 64 16 32 16
WIRE 624 16 448 16
WIRE 736 16 624 16
WIRE 848 16 736 16
WIRE 1024 16 848 16
WIRE 1104 16 1024 16
WIRE -592 32 -592 16
WIRE 1024 32 1024 16
WIRE 1104 32 1104 16
WIRE -400 48 -400 16
WIRE 32 80 32 16
WIRE 64 80 32 80
WIRE 464 80 448 80
WIRE -304 112 -304 80
WIRE -192 112 -192 80
WIRE 624 112 624 80
WIRE 736 112 736 80
WIRE 848 112 848 80
WIRE -592 128 -592 112
WIRE 1024 128 1024 96
WIRE 1104 128 1104 112
WIRE -400 144 -400 112
WIRE 480 144 448 144
WIRE 512 144 480 144
WIRE 512 160 512 144
WIRE -48 208 -160 208
WIRE 64 208 -48 208
WIRE 480 208 480 144
WIRE 480 208 448 208
WIRE -48 240 -48 208
WIRE 64 272 48 272
WIRE 512 272 512 240
WIRE 512 272 448 272
WIRE 512 288 512 272
WIRE -48 336 -48 320
WIRE 64 336 -48 336
WIRE 464 336 448 336
WIRE 560 336 528 336
WIRE 64 400 48 400
WIRE 464 400 448 400
WIRE 560 400 544 400
WIRE -160 464 -160 208
WIRE -128 464 -160 464
WIRE -16 464 -48 464
WIRE 64 464 -16 464
WIRE 496 464 448 464
WIRE -16 480 -16 464
WIRE 496 480 496 464
WIRE 176 544 176 528
WIRE 320 544 320 528
WIRE 496 560 496 544
WIRE -16 576 -16 560
FLAG 464 80 0
FLAG 560 400 0
FLAG 512 288 0
FLAG 320 544 0
FLAG 176 544 0
FLAG -592 128 0
FLAG 496 560 0
FLAG -592 16 IN
FLAG -400 144 0
FLAG 1104 16 OUT
FLAG 1104 128 0
FLAG 1024 128 0
FLAG 624 112 0
FLAG 560 336 0
FLAG 736 112 0
FLAG 848 112 0
FLAG -304 112 0
FLAG -192 112 0
FLAG -16 576 0
SYMBOL LTM4607 256 240 R0
SYMATTR InstName U1
SYMBOL cap 480 480 R0
SYMATTR InstName C2
SYMATTR Value .002µ
SYMBOL res -64 336 M180
WINDOW 0 36 76 Left 2
WINDOW 3 36 40 Left 2
SYMATTR InstName R3
SYMATTR Value 100K
SYMBOL voltage -592 16 R0
WINDOW 123 0 0 Left 2
WINDOW 39 24 124 Left 2
SYMATTR SpiceLine Rser=5m
SYMATTR InstName Vin1
SYMATTR Value 15
SYMBOL cap -384 48 M0
WINDOW 123 25 91 Left 2
SYMATTR Value2 x1
SYMATTR InstName Cinb1
SYMATTR Value 180µ
SYMATTR SpiceLine Rser=21m
SYMBOL ind 192 -80 R270
WINDOW 0 32 56 VTop 2
WINDOW 3 5 56 VBottom 2
SYMATTR InstName Lo1
SYMATTR Value 4.7µ
SYMATTR SpiceLine Rser=8m
SYMBOL res 560 416 M270
WINDOW 0 32 56 VTop 2
WINDOW 3 0 56 VBottom 2
SYMATTR InstName RfbBot1
SYMATTR Value 7.13k
SYMBOL cap 528 320 R90
WINDOW 0 -9 -26 VBottom 2
WINDOW 3 -19 25 VTop 2
WINDOW 39 -6 -183 VTop 2
SYMATTR InstName C3
SYMATTR Value 0p
SYMBOL res 496 144 R0
SYMATTR InstName Rsense1
SYMATTR Value 7.5m
SYMBOL cap 1040 32 M0
WINDOW 123 33 91 Left 2
SYMATTR Value2 x2
SYMATTR InstName Cob1
SYMATTR Value 220µ
SYMATTR SpiceLine Rser=21m
SYMBOL cap 640 16 M0
WINDOW 123 -45 132 Left 2
WINDOW 0 -60 43 Left 2
WINDOW 3 -63 69 Left 2
SYMATTR InstName Coc1
SYMATTR Value 8µ
SYMATTR SpiceLine Rser=2.3m Lser=1.14n
SYMBOL res 1088 16 R0
SYMATTR InstName R1
SYMATTR Value 2.4
SYMBOL cap 752 16 M0
WINDOW 123 -45 132 Left 2
WINDOW 0 -60 43 Left 2
WINDOW 3 -63 69 Left 2
SYMATTR InstName Coc2
SYMATTR Value 8µ
SYMATTR SpiceLine Rser=2.3m Lser=1.14n
SYMBOL cap 864 16 M0
WINDOW 123 -45 132 Left 2
WINDOW 0 -60 43 Left 2
WINDOW 3 -63 69 Left 2
SYMATTR InstName Coc3
SYMATTR Value 8µ
SYMATTR SpiceLine Rser=2.3m Lser=1.14n
SYMBOL cap -288 16 M0
WINDOW 123 -45 132 Left 2
WINDOW 0 -60 43 Left 2
WINDOW 3 -63 69 Left 2
SYMATTR InstName Coc4
SYMATTR Value 8µ
SYMATTR SpiceLine Rser=2.3m Lser=1.14n
SYMBOL cap -176 16 M0
WINDOW 123 -45 132 Left 2
WINDOW 0 -60 43 Left 2
WINDOW 3 -63 69 Left 2
SYMATTR InstName Coc5
SYMATTR Value 8µ
SYMATTR SpiceLine Rser=2.3m Lser=1.14n
SYMBOL res -32 448 R90
WINDOW 0 0 56 VBottom 2
WINDOW 3 32 56 VTop 2
SYMATTR InstName R2
SYMATTR Value 4.7k
SYMBOL res -32 464 R0
SYMATTR InstName R4
SYMATTR Value 2.7k
TEXT -432 640 Left 2 !.tran 0 150m 95m startup
