Version 4
SHEET 1 1332 712
WIRE -272 -672 -512 -672
WIRE -112 -672 -272 -672
WIRE 0 -672 -16 -672
WIRE 64 -672 0 -672
WIRE 240 -672 160 -672
WIRE 704 -672 240 -672
WIRE 896 -672 704 -672
WIRE 1088 -672 976 -672
WIRE 1264 -672 1088 -672
WIRE -512 -656 -512 -672
WIRE 240 -640 240 -672
WIRE 1088 -640 1088 -672
WIRE -32 -608 -32 -624
WIRE 80 -608 80 -624
WIRE 80 -608 -32 -608
WIRE -512 -560 -512 -576
WIRE 80 -560 80 -608
WIRE 240 -560 240 -576
WIRE 240 -560 80 -560
WIRE 768 -560 768 -576
WIRE 1088 -560 1088 -576
WIRE -160 -512 -368 -512
WIRE 176 -512 -160 -512
WIRE 352 -512 272 -512
WIRE 560 -512 448 -512
WIRE 704 -512 704 -672
WIRE 704 -512 560 -512
WIRE -368 -496 -368 -512
WIRE 560 -496 560 -512
WIRE 1264 -480 1264 -672
WIRE 256 -448 256 -464
WIRE 352 -448 256 -448
WIRE 368 -448 368 -464
WIRE 368 -448 352 -448
WIRE 352 -416 352 -448
WIRE 560 -416 560 -432
WIRE 560 -416 352 -416
WIRE -368 -400 -368 -416
WIRE 80 -400 80 -560
WIRE 352 -400 352 -416
WIRE 1264 -384 1264 -400
WIRE 0 -288 0 -672
WIRE 80 -288 80 -320
WIRE 272 -288 272 -512
WIRE 352 -288 352 -320
WIRE 704 -208 704 -512
WIRE 704 -208 432 -208
WIRE -272 -192 -272 -672
WIRE -80 -192 -272 -192
WIRE -272 -176 -272 -192
WIRE 512 -96 432 -96
WIRE 704 -96 704 -208
WIRE 704 -96 592 -96
WIRE -272 -64 -272 -96
WIRE -80 -64 -272 -64
WIRE -272 -48 -272 -64
WIRE 512 16 432 16
WIRE 704 16 704 -96
WIRE 704 16 592 16
WIRE -272 64 -272 32
WIRE -80 64 -272 64
WIRE -160 192 -160 -512
WIRE -160 192 -272 192
WIRE -80 192 -160 192
WIRE -272 208 -272 192
WIRE 480 240 432 240
WIRE -272 320 -272 288
WIRE -80 320 -272 320
WIRE -272 336 -272 320
WIRE 448 352 432 352
WIRE -272 448 -272 416
WIRE -80 448 -272 448
WIRE 448 464 432 464
WIRE 480 480 480 240
WIRE 480 560 480 544
WIRE 0 576 0 544
WIRE 176 576 176 544
WIRE 352 576 352 544
WIRE 352 656 352 640
WIRE 176 672 176 656
FLAG 0 576 0
FLAG -272 144 0
FLAG -272 528 0
FLAG 176 672 0
FLAG 352 656 0
FLAG 480 560 0
FLAG -512 -560 0
FLAG -368 -400 0
FLAG 1264 -384 0
FLAG 768 -560 0
FLAG 1088 -560 0
SYMBOL PowerProducts\\LTC4418 176 128 R0
SYMATTR InstName U1
SYMBOL res -288 48 R0
SYMATTR InstName R1
SYMATTR Value 150k
SYMBOL res -288 -64 R0
SYMATTR InstName R2
SYMATTR Value 210k
SYMBOL res -288 -192 R0
SYMATTR InstName R3
SYMATTR Value 4.12Meg
SYMBOL res -288 432 R0
SYMATTR InstName R4
SYMATTR Value 150k
SYMBOL res -288 320 R0
SYMATTR InstName R5
SYMATTR Value 210k
SYMBOL res -288 192 R0
SYMATTR InstName R6
SYMATTR Value 4.12Meg
SYMBOL res 192 672 R180
WINDOW 0 36 76 Left 2
WINDOW 3 36 40 Left 2
SYMATTR InstName R7
SYMATTR Value 255k
SYMBOL cap 336 576 R0
SYMATTR InstName C1
SYMATTR Value 1n
SYMBOL cap 464 480 R0
SYMATTR InstName C2
SYMATTR Value 100n
SYMBOL pmos -112 -624 R270
WINDOW 0 51 49 VTop 2
WINDOW 3 -11 75 VLeft 2
SYMATTR InstName Q1
SYMATTR Value HAT1072H
SYMBOL pmos 160 -624 M270
WINDOW 0 52 49 VTop 2
WINDOW 3 -11 72 VLeft 2
SYMATTR InstName Q2
SYMATTR Value HAT1072H
SYMBOL pmos 176 -464 R270
WINDOW 0 51 49 VTop 2
WINDOW 3 -11 75 VLeft 2
SYMATTR InstName Q3
SYMATTR Value HAT1072H
SYMBOL pmos 448 -464 M270
WINDOW 0 52 49 VTop 2
WINDOW 3 -11 72 VLeft 2
SYMATTR InstName Q4
SYMATTR Value HAT1072H
SYMBOL res 608 -112 R90
WINDOW 0 0 56 VBottom 2
WINDOW 3 32 56 VTop 2
SYMATTR InstName R8
SYMATTR Value 100k
SYMBOL res 608 0 R90
WINDOW 0 0 56 VBottom 2
WINDOW 3 32 56 VTop 2
SYMATTR InstName R9
SYMATTR Value 100k
SYMBOL voltage -512 -672 R0
WINDOW 39 24 44 Left 2
WINDOW 123 0 0 Left 2
SYMATTR SpiceLine Rser=10m
SYMATTR InstName V1
SYMATTR Value PULSE(0 16.8 3 1 10 1 3 5)
SYMBOL voltage -368 -512 R0
WINDOW 39 24 44 Left 2
WINDOW 123 0 0 Left 2
SYMATTR SpiceLine Rser=10m
SYMATTR InstName V2
SYMATTR Value 19.4
SYMBOL res 1248 -496 R0
SYMATTR InstName R10
SYMATTR Value 1
SYMBOL cap 752 -640 R0
SYMATTR InstName C3
SYMATTR Value 100µ
SYMATTR SpiceLine Rser=63m
SYMBOL res 992 -688 R90
WINDOW 0 0 56 VBottom 2
WINDOW 3 32 56 VTop 2
SYMATTR InstName R11
SYMATTR Value 30m
SYMBOL cap 1072 -640 R0
SYMATTR InstName C4
SYMATTR Value 540µ
SYMATTR SpiceLine Rser=10m
SYMBOL res 336 -416 R0
SYMATTR InstName R12
SYMATTR Value 1k
SYMBOL res 64 -416 R0
SYMATTR InstName R13
SYMATTR Value 1k
SYMBOL cap 224 -640 R0
SYMATTR InstName C5
SYMATTR Value 100n
SYMBOL cap 544 -496 R0
SYMATTR InstName C6
SYMATTR Value 100n
TEXT -544 696 Left 2 !.tran 30 uic
